Pcp_File_Version=4
      1
Esperance
  
   NOBB     MIT iWeight
    195      25       2
  lWatF  lChemF    NMat   lTempF
      t       f       2       f
  Model   Hysteresis
      0       0
    thr     ths    Alfa       n         Ks       l
   0.12  0.3748   0.036    1.56     1e-005     0.5 
      1       0       1       1          1       0 
    0.1  0.3748   0.001       1     1e-006     0.5 
 0.1461  0.3748     0.3     3.5     0.0001     0.5 
    thr     ths    Alfa       n         Ks       l
   0.07    0.34 0.00015       7   5.8e-008     0.5 
      0       0       0       0          0       0 
      0       0       0       0          0       0 
      0       0       0       0          0       0 
      HO(N)         FOS   ITYPE(N) POS     WTS
          40           -0     0     2        1 
          80 -0.000597058     0     2        1 
         130 -0.000895587     0     2        1 
         180  -0.00119412     0     2        1 
         230  -0.00149264     0     2        1 
         280  -0.00179117     0     2        1 
         331   -0.0020897     0     2        1 
         381   -0.0020897     0     2        1 
         431  -0.00238823     0     2        1 
         481  -0.00268676     0     2        1 
         531  -0.00298529     0     2        1 
         581  -0.00328382     0     2        1 
         631  -0.00358235     0     2        1 
         681  -0.00388088     0     2        1 
         731  -0.00417941     0     2        1 
         781  -0.00417941     0     2        1 
         831  -0.00447793     0     2        1 
         881  -0.00477646     0     2        1 
         932  -0.00507499     0     2        1 
         982  -0.00537352     0     2        1 
        1032  -0.00567205     0     2        1 
        1132  -0.00597058     0     2        1 
        1232  -0.00656764     0     2        1 
        1332  -0.00716469     0     2        1 
        1432  -0.00746322     0     2        1 
        1532  -0.00806028     0     2        1 
        1632  -0.00835881     0     2        1 
        1733  -0.00895587     0     2        1 
        1833   -0.0092544     0     2        1 
        1933     -0.01015     0     2        1 
        2033   -0.0104485     0     2        1 
        2233   -0.0113441     0     2        1 
        2434   -0.0119412     0     2        1 
        2634   -0.0128367     0     2        1 
        2834   -0.0137323     0     2        1 
        3035   -0.0143294     0     2        1 
        3235   -0.0149264     0     2        1 
        3435    -0.015822     0     2        1 
        3636   -0.0164191     0     2        1 
        3836   -0.0170162     0     2        1 
        4036   -0.0176132     0     2        1 
        4236   -0.0179117     0     2        1 
        4437   -0.0185088     0     2        1 
        4637   -0.0191059     0     2        1 
        4837   -0.0194044     0     2        1 
        5037   -0.0200014     0     2        1 
        5238      -0.0203     0     2        1 
        5438    -0.020897     0     2        1 
        5638   -0.0211956     0     2        1 
        5839   -0.0217926     0     2        1 
        6039   -0.0220911     0     2        1 
        6239   -0.0223897     0     2        1 
        6439   -0.0226882     0     2        1 
        6640   -0.0229867     0     2        1 
        6840   -0.0232853     0     2        1 
        7040   -0.0232853     0     2        1 
        7541   -0.0238823     0     2        1 
        8042   -0.0244794     0     2        1 
        8542   -0.0247779     0     2        1 
        9043   -0.0250764     0     2        1 
        9544   -0.0256735     0     2        1 
       10044    -0.025972     0     2        1 
       10545    -0.025972     0     2        1 
       11046   -0.0262705     0     2        1 
       11546   -0.0262705     0     2        1 
       12047   -0.0265691     0     2        1 
       12548   -0.0265691     0     2        1 
       13049   -0.0265691     0     2        1 
       13549   -0.0268676     0     2        1 
       14050   -0.0271661     0     2        1 
       14551   -0.0271661     0     2        1 
       15051   -0.0268676     0     2        1 
       15552   -0.0268676     0     2        1 
       16053   -0.0268676     0     2        1 
       16554   -0.0268676     0     2        1 
       17054   -0.0271661     0     2        1 
       17555   -0.0271661     0     2        1 
       18236   -0.0271661     0     2        1 
       18291   -0.0319426     0     2        1 
       18341    -0.051347     0     2        1 
       18391   -0.0707514     0     2        1 
       18442   -0.0898572     0     2        1 
       18492     -0.10956     0     2        1 
       18542    -0.128367     0     2        1 
       18592    -0.147473     0     2        1 
       18657    -0.170759     0     2        1 
       18732    -0.198223     0     2        1 
       18827    -0.231061     0     2        1 
       18967    -0.276139     0     2        1 
       19118    -0.317336     0     2        1 
       19268    -0.350772     0     2        1 
       19418    -0.377341     0     2        1 
       19568    -0.399133     0     2        1 
       19718    -0.417343     0     2        1 
       19869    -0.433464     0     2        1 
       20019    -0.447793     0     2        1 
       20169    -0.460033     0     2        1 
       20319    -0.471377     0     2        1 
       20469    -0.481527     0     2        1 
       20620    -0.490782     0     2        1 
       20770    -0.499737     0     2        1 
       20920    -0.507499     0     2        1 
       21070    -0.514664     0     2        1 
       21220    -0.521232     0     2        1 
       21371    -0.527202     0     2        1 
       21521    -0.532874     0     2        1 
       21671    -0.538248     0     2        1 
       21821    -0.543323     0     2        1 
       21971    -0.548099     0     2        1 
       22122    -0.552279     0     2        1 
       22272    -0.556458     0     2        1 
       22422    -0.560637     0     2        1 
       22572     -0.56422     0     2        1 
       22723    -0.567802     0     2        1 
       22873    -0.571086     0     2        1 
       23023     -0.57437     0     2        1 
       23173    -0.577355     0     2        1 
       23323     -0.58034     0     2        1 
       23474    -0.583326     0     2        1 
       23624    -0.586012     0     2        1 
       23774    -0.588401     0     2        1 
       23924    -0.591087     0     2        1 
       24074    -0.593476     0     2        1 
       24225    -0.595565     0     2        1 
       24375    -0.597954     0     2        1 
       24525    -0.600342     0     2        1 
       24675    -0.602431     0     2        1 
       24825    -0.604521     0     2        1 
       24976    -0.606611     0     2        1 
       25126    -0.608104     0     2        1 
       25276    -0.610193     0     2        1 
       25426    -0.611984     0     2        1 
       25576    -0.613477     0     2        1 
       25727    -0.615268     0     2        1 
       25877    -0.616761     0     2        1 
       26027    -0.618552     0     2        1 
       26177    -0.620045     0     2        1 
       26327    -0.621537     0     2        1 
       26478    -0.622731     0     2        1 
       26628    -0.624224     0     2        1 
       26778    -0.625717     0     2        1 
       26928    -0.626911     0     2        1 
       27078    -0.628403     0     2        1 
       27229    -0.629598     0     2        1 
       27379    -0.630792     0     2        1 
       27529    -0.631986     0     2        1 
       27679    -0.632881     0     2        1 
       27830    -0.634076     0     2        1 
       27980     -0.63527     0     2        1 
       28130    -0.636464     0     2        1 
       28280    -0.637956     0     2        1 
       28430    -0.638852     0     2        1 
       28581    -0.640046     0     2        1 
       28731    -0.640942     0     2        1 
       29151    -0.643628     0     2        1 
       29451     -0.64542     0     2        1 
       29751    -0.647211     0     2        1 
       30051    -0.649002     0     2        1 
       30352    -0.650495     0     2        1 
       30652    -0.651987     0     2        1 
       30952    -0.653778     0     2        1 
       31252    -0.655271     0     2        1 
       31552    -0.656465     0     2        1 
       31852    -0.657958     0     2        1 
       32152    -0.659749     0     2        1 
       32452    -0.660943     0     2        1 
       32752    -0.662137     0     2        1 
       33052    -0.663331     0     2        1 
       33352    -0.664526     0     2        1 
       33652     -0.66572     0     2        1 
       33952    -0.666914     0     2        1 
       34252    -0.667809     0     2        1 
       34552    -0.669003     0     2        1 
       34853    -0.669899     0     2        1 
       35153    -0.671093     0     2        1 
       35453    -0.671989     0     2        1 
       35753    -0.673183     0     2        1 
       36053    -0.674078     0     2        1 
       36353    -0.674974     0     2        1 
       36653     -0.67587     0     2        1 
       36953    -0.676765     0     2        1 
       37253    -0.677661     0     2        1 
       37553    -0.678556     0     2        1 
       37853    -0.679153     0     2        1 
       38153    -0.680049     0     2        1 
       38453    -0.680945     0     2        1 
       38753    -0.681542     0     2        1 
       39054    -0.682437     0     2        1 
       39354    -0.683034     0     2        1 
       39654     -0.68393     0     2        1 
       39954    -0.684527     0     2        1 
       40254    -0.685124     0     2        1 
       40554     -0.68602     0     2        1 
       40854    -0.686617     0     2        1 
       41154    -0.687214     0     2        1 
end*** END OF INPUT FILE 'FIT.IN' **********************************
